1HHO_HEM_A_143
  RCSB PDB01311304003D
Coordinates from PDB:1HHO:A:143 Model:1 without hydrogens
 43 50  0  0  0  0            999 V2000
    9.4750   10.0470  -17.9660   C 0  0  0  0  0  0  0  0  0  0  0  0
   10.7180   11.8920  -13.6910   C 0  0  0  0  0  0  0  0  0  0  0  0
    8.9750    7.9280  -11.6610   C 0  0  0  0  0  0  0  0  0  0  0  0
    7.4760    6.1130  -15.8830   C 0  0  0  0  0  0  0  0  0  0  0  0
   10.0470   10.8750  -16.9570   C 0  0  0  0  0  0  0  0  0  0  0  0
   10.7720   12.1070  -17.2100   C 0  0  0  0  0  0  0  0  0  0  0  0
   11.1040   12.5930  -15.9880   C 0  0  0  0  0  0  0  0  0  0  0  0
   10.5990   11.6860  -15.0360   C 0  0  0  0  0  0  0  0  0  0  0  0
   11.9510   13.7610  -15.5930   C 0  0  0  0  0  0  0  0  0  0  0  0
   10.6740   12.8920  -18.5060   C 0  0  0  0  0  0  0  0  0  0  0  0
   10.3670   14.3760  -18.4800   C 0  0  0  0  0  0  0  0  0  0  0  0
   10.5610   14.8640  -19.9130   C 0  0  0  0  0  0  0  0  0  0  0  0
   11.4360   15.6950  -20.1910   O 0  0  0  0  0  0  0  0  0  0  0  0
    9.8480   14.3380  -20.7590   O 0  0  0  0  0  0  0  0  0  0  0  0
   10.3490   10.9460  -12.7660   C 0  0  0  0  0  0  0  0  0  0  0  0
   10.6740   11.0230  -11.3540   C 0  0  0  0  0  0  0  0  0  0  0  0
   10.1810    9.8920  -10.7540   C 0  0  0  0  0  0  0  0  0  0  0  0
    9.5720    9.1520  -11.8490   C 0  0  0  0  0  0  0  0  0  0  0  0
   11.2320   12.2750  -10.7440   C 0  0  0  0  0  0  0  0  0  0  0  0
    9.8660    9.5720   -9.2980   C 0  0  0  0  0  0  0  0  0  0  0  0
   10.3690   10.2820   -8.2020   C 0  0  0  0  0  0  0  0  0  0  0  0
    8.4330    7.1100  -12.6550   C 0  0  0  0  0  0  0  0  0  0  0  0
    7.8070    5.8260  -12.3760   C 0  0  0  0  0  0  0  0  0  0  0  0
    7.3820    5.3040  -13.5570   C 0  0  0  0  0  0  0  0  0  0  0  0
    7.7440    6.2650  -14.5540   C 0  0  0  0  0  0  0  0  0  0  0  0
    7.3990    5.3800  -11.0080   C 0  0  0  0  0  0  0  0  0  0  0  0
    6.7540    3.9660  -13.8300   C 0  0  0  0  0  0  0  0  0  0  0  0
    7.4360    2.7900  -13.6160   C 0  0  0  0  0  0  0  0  0  0  0  0
    7.8630    7.0830  -16.8210   C 0  0  0  0  0  0  0  0  0  0  0  0
    7.6500    6.9680  -18.2260   C 0  0  0  0  0  0  0  0  0  0  0  0
    8.1710    8.0500  -18.7970   C 0  0  0  0  0  0  0  0  0  0  0  0
    8.7280    8.8680  -17.7550   C 0  0  0  0  0  0  0  0  0  0  0  0
    7.4070    5.6860  -18.9590   C 0  0  0  0  0  0  0  0  0  0  0  0
    8.2910    8.2260  -20.2840   C 0  0  0  0  0  0  0  0  0  0  0  0
    9.5420    7.5960  -20.8820   C 0  0  0  0  0  0  0  0  0  0  0  0
    9.4750    7.8250  -22.3750   C 0  0  0  0  0  0  0  0  0  0  0  0
    8.4470    7.4850  -22.9550   O 0  0  0  0  0  0  0  0  0  0  0  0
   10.4380    8.3610  -22.9290   O 0  0  0  0  0  0  0  0  0  0  0  0
   10.0060   10.6120  -15.6250   N 0  0  0  0  0  0  0  0  0  0  0  0
    9.6950    9.7910  -13.0820   N 0  0  0  0  0  0  0  0  0  0  0  0
    8.4120    7.3810  -14.0060   N 0  0  0  0  0  0  0  0  0  0  0  0
    8.4880    8.2580  -16.5320   N 0  0  0  0  0  0  0  0  0  0  0  0
    9.0210    9.0340  -14.8480  Fe 0  0  0  0  0  0  0  0  0  0  0  0
  1  5  1  0  0  0  0
  1 32  2  0  0  0  0
  2  8  1  0  0  0  0
  2 15  2  0  0  0  0
  3 18  1  0  0  0  0
  3 22  2  0  0  0  0
  4 25  2  0  0  0  0
  4 29  1  0  0  0  0
  5  6  2  0  0  0  0
  5 39  1  0  0  0  0
  6  7  1  0  0  0  0
  6 10  1  0  0  0  0
  7  8  2  0  0  0  0
  7  9  1  0  0  0  0
  8 39  1  0  0  0  0
 10 11  1  0  0  0  0
 11 12  1  0  0  0  0
 12 13  2  0  0  0  0
 12 14  1  0  0  0  0
 15 16  1  0  0  0  0
 15 40  1  0  0  0  0
 16 17  2  0  0  0  0
 16 19  1  0  0  0  0
 17 18  1  0  0  0  0
 17 20  1  0  0  0  0
 18 40  2  0  0  0  0
 20 21  2  0  0  0  0
 22 23  1  0  0  0  0
 22 41  1  0  0  0  0
 23 24  2  0  0  0  0
 23 26  1  0  0  0  0
 24 25  1  0  0  0  0
 24 27  1  0  0  0  0
 25 41  1  0  0  0  0
 27 28  2  0  0  0  0
 29 30  1  0  0  0  0
 29 42  2  0  0  0  0
 30 31  2  0  0  0  0
 30 33  1  0  0  0  0
 31 32  1  0  0  0  0
 31 34  1  0  0  0  0
 32 42  1  0  0  0  0
 34 35  1  0  0  0  0
 35 36  1  0  0  0  0
 36 37  2  0  0  0  0
 36 38  1  0  0  0  0
 43 39  1  0  0  0  0
 43 40  1  0  0  0  0
 43 41  1  0  0  0  0
 43 42  1  0  0  0  0
A    1
CHA
A    2
CHB
A    3
CHC
A    4
CHD
A    5
C1A
A    6
C2A
A    7
C3A
A    8
C4A
A    9
CMA
A   10
CAA
A   11
CBA
A   12
CGA
A   13
O1A
A   14
O2A
A   15
C1B
A   16
C2B
A   17
C3B
A   18
C4B
A   19
CMB
A   20
CAB
A   21
CBB
A   22
C1C
A   23
C2C
A   24
C3C
A   25
C4C
A   26
CMC
A   27
CAC
A   28
CBC
A   29
C1D
A   30
C2D
A   31
C3D
A   32
C4D
A   33
CMD
A   34
CAD
A   35
CBD
A   36
CGD
A   37
O1D
A   38
O2D
A   39
NA
A   40
NB
A   41
NC
A   42
ND
A   43
FE
M  END
>  <InstanceId>
1HHO_HEM_A_143

>  <ChemCompId>
HEM

>  <PdbId>
1HHO

>  <ChainId>
A

>  <ResidueNumber>
143

>  <InsertionCode>


>  <Model>
1

>  <AltIds>


>  <MissingHeavyAtoms>
0

>  <ObservedFormula>
C34 N4 O4 Fe

>  <Name>
PROTOPORPHYRIN IX CONTAINING FE

>  <SystematicName>
3-[(5Z,10Z,14Z,19Z)-18-(2-carboxyethyl)-8,13-bis(ethenyl)-3,7,12,17-tetramethyl-21,23-dihydroporphyrin-2-yl]propanoic acid

>  <Synonyms>
HEME

>  <Type>
NON-POLYMER

>  <Formula>
C34 H32 Fe N4 O4

>  <MolecularWeight>
616.487

>  <ModifiedDate>
2009-08-11

>  <Parent>


>  <OneLetterCode>


>  <SubcomponentList>


>  <AmbiguousFlag>
Y

>  <InChI>
InChI=1S/C34H34N4O4/c1-7-21-17(3)25-13-26-19(5)23(9-11-33(39)40)31(37-26)16-32-24(10-12-34(41)42)20(6)28(38-32)15-30-22(8-2)18(4)27(36-30)14-29(21)35-25/h7-8,13-16,36-37H,1-2,9-12H2,3-6H3,(H,39,40)(H,41,42)/b25-13-,26-13-,27-14-,28-15-,29-14-,30-15-,31-16-,32-16-

>  <InChIKey>
FEDYMSUPMFCVOD-UJJXFSCMSA-N

>  <SMILES>
Cc1c2/cc/3\nc(/cc\4/c(c(/c(/[nH]4)c/c5n/c(c\c(c1CCC(=O)O)[nH]2)/C(=C5C)CCC(=O)O)C=C)C)C(=C3C)C=C

$$$$
1HHO_HEM_B_147
  RCSB PDB01311304003D
Coordinates from PDB:1HHO:B:147 Model:1 without hydrogens
 43 50  0  0  0  0            999 V2000
    8.9300  -10.2130   17.8400   C 0  0  0  0  0  0  0  0  0  0  0  0
   10.8340  -11.6780   13.6850   C 0  0  0  0  0  0  0  0  0  0  0  0
    8.4700   -7.9840   11.5710   C 0  0  0  0  0  0  0  0  0  0  0  0
    7.1360   -6.2440   15.8280   C 0  0  0  0  0  0  0  0  0  0  0  0
    9.6550  -10.9010   16.9020   C 0  0  0  0  0  0  0  0  0  0  0  0
   10.5010  -12.0230   17.2460   C 0  0  0  0  0  0  0  0  0  0  0  0
   11.0520  -12.4720   16.0770   C 0  0  0  0  0  0  0  0  0  0  0  0
   10.5490  -11.5900   15.0410   C 0  0  0  0  0  0  0  0  0  0  0  0
   12.2910  -13.2960   15.9200   C 0  0  0  0  0  0  0  0  0  0  0  0
   10.4980  -12.6300   18.6210   C 0  0  0  0  0  0  0  0  0  0  0  0
   10.9300  -14.0770   18.7840   C 0  0  0  0  0  0  0  0  0  0  0  0
   10.6380  -14.4880   20.2290   C 0  0  0  0  0  0  0  0  0  0  0  0
   11.0490  -15.5990   20.5860   O 0  0  0  0  0  0  0  0  0  0  0  0
   10.0190  -13.6970   20.9600   O 0  0  0  0  0  0  0  0  0  0  0  0
   10.2960  -10.7780   12.7650   C 0  0  0  0  0  0  0  0  0  0  0  0
   10.5500  -10.8620   11.3860   C 0  0  0  0  0  0  0  0  0  0  0  0
    9.8790   -9.8180   10.7930   C 0  0  0  0  0  0  0  0  0  0  0  0
    9.2260   -9.1210   11.8350   C 0  0  0  0  0  0  0  0  0  0  0  0
   11.5420  -11.8440   10.8410   C 0  0  0  0  0  0  0  0  0  0  0  0
    9.5850   -9.4590    9.3710   C 0  0  0  0  0  0  0  0  0  0  0  0
   10.2470  -10.0320    8.2970   C 0  0  0  0  0  0  0  0  0  0  0  0
    7.9710   -7.1690   12.5620   C 0  0  0  0  0  0  0  0  0  0  0  0
    7.4730   -5.8460   12.3100   C 0  0  0  0  0  0  0  0  0  0  0  0
    7.0880   -5.3450   13.5000   C 0  0  0  0  0  0  0  0  0  0  0  0
    7.3850   -6.3640   14.4790   C 0  0  0  0  0  0  0  0  0  0  0  0
    7.2940   -5.1890   10.9680   C 0  0  0  0  0  0  0  0  0  0  0  0
    6.0690   -4.2680   13.6610   C 0  0  0  0  0  0  0  0  0  0  0  0
    6.4640   -2.9730   13.9060   C 0  0  0  0  0  0  0  0  0  0  0  0
    7.4960   -7.2000   16.7330   C 0  0  0  0  0  0  0  0  0  0  0  0
    7.3680   -7.0590   18.1610   C 0  0  0  0  0  0  0  0  0  0  0  0
    7.8190   -8.2050   18.6890   C 0  0  0  0  0  0  0  0  0  0  0  0
    8.2570   -9.0390   17.6170   C 0  0  0  0  0  0  0  0  0  0  0  0
    7.2030   -5.7890   18.9550   C 0  0  0  0  0  0  0  0  0  0  0  0
    8.0890   -8.4010   20.1440   C 0  0  0  0  0  0  0  0  0  0  0  0
    7.4700   -9.7120   20.5650   C 0  0  0  0  0  0  0  0  0  0  0  0
    7.3350   -9.7500   22.0690   C 0  0  0  0  0  0  0  0  0  0  0  0
    6.1830   -9.6060   22.4890   O 0  0  0  0  0  0  0  0  0  0  0  0
    8.3450   -9.9000   22.7730   O 0  0  0  0  0  0  0  0  0  0  0  0
    9.7650  -10.5770   15.5700   N 0  0  0  0  0  0  0  0  0  0  0  0
    9.4560   -9.7300   13.0590   N 0  0  0  0  0  0  0  0  0  0  0  0
    8.0390   -7.4340   13.9070   N 0  0  0  0  0  0  0  0  0  0  0  0
    8.1170   -8.3750   16.4280   N 0  0  0  0  0  0  0  0  0  0  0  0
    8.9690   -9.0340   14.8060  Fe 0  0  0  0  0  0  0  0  0  0  0  0
  1  5  1  0  0  0  0
  1 32  2  0  0  0  0
  2  8  1  0  0  0  0
  2 15  2  0  0  0  0
  3 18  1  0  0  0  0
  3 22  2  0  0  0  0
  4 25  2  0  0  0  0
  4 29  1  0  0  0  0
  5  6  2  0  0  0  0
  5 39  1  0  0  0  0
  6  7  1  0  0  0  0
  6 10  1  0  0  0  0
  7  8  2  0  0  0  0
  7  9  1  0  0  0  0
  8 39  1  0  0  0  0
 10 11  1  0  0  0  0
 11 12  1  0  0  0  0
 12 13  2  0  0  0  0
 12 14  1  0  0  0  0
 15 16  1  0  0  0  0
 15 40  1  0  0  0  0
 16 17  2  0  0  0  0
 16 19  1  0  0  0  0
 17 18  1  0  0  0  0
 17 20  1  0  0  0  0
 18 40  2  0  0  0  0
 20 21  2  0  0  0  0
 22 23  1  0  0  0  0
 22 41  1  0  0  0  0
 23 24  2  0  0  0  0
 23 26  1  0  0  0  0
 24 25  1  0  0  0  0
 24 27  1  0  0  0  0
 25 41  1  0  0  0  0
 27 28  2  0  0  0  0
 29 30  1  0  0  0  0
 29 42  2  0  0  0  0
 30 31  2  0  0  0  0
 30 33  1  0  0  0  0
 31 32  1  0  0  0  0
 31 34  1  0  0  0  0
 32 42  1  0  0  0  0
 34 35  1  0  0  0  0
 35 36  1  0  0  0  0
 36 37  2  0  0  0  0
 36 38  1  0  0  0  0
 43 39  1  0  0  0  0
 43 40  1  0  0  0  0
 43 41  1  0  0  0  0
 43 42  1  0  0  0  0
A    1
CHA
A    2
CHB
A    3
CHC
A    4
CHD
A    5
C1A
A    6
C2A
A    7
C3A
A    8
C4A
A    9
CMA
A   10
CAA
A   11
CBA
A   12
CGA
A   13
O1A
A   14
O2A
A   15
C1B
A   16
C2B
A   17
C3B
A   18
C4B
A   19
CMB
A   20
CAB
A   21
CBB
A   22
C1C
A   23
C2C
A   24
C3C
A   25
C4C
A   26
CMC
A   27
CAC
A   28
CBC
A   29
C1D
A   30
C2D
A   31
C3D
A   32
C4D
A   33
CMD
A   34
CAD
A   35
CBD
A   36
CGD
A   37
O1D
A   38
O2D
A   39
NA
A   40
NB
A   41
NC
A   42
ND
A   43
FE
M  END
>  <InstanceId>
1HHO_HEM_B_147

>  <ChemCompId>
HEM

>  <PdbId>
1HHO

>  <ChainId>
B

>  <ResidueNumber>
147

>  <InsertionCode>


>  <Model>
1

>  <AltIds>


>  <MissingHeavyAtoms>
0

>  <ObservedFormula>
C34 N4 O4 Fe

>  <Name>
PROTOPORPHYRIN IX CONTAINING FE

>  <SystematicName>
3-[(5Z,10Z,14Z,19Z)-18-(2-carboxyethyl)-8,13-bis(ethenyl)-3,7,12,17-tetramethyl-21,23-dihydroporphyrin-2-yl]propanoic acid

>  <Synonyms>
HEME

>  <Type>
NON-POLYMER

>  <Formula>
C34 H32 Fe N4 O4

>  <MolecularWeight>
616.487

>  <ModifiedDate>
2009-08-11

>  <Parent>


>  <OneLetterCode>


>  <SubcomponentList>


>  <AmbiguousFlag>
Y

>  <InChI>
InChI=1S/C34H34N4O4/c1-7-21-17(3)25-13-26-19(5)23(9-11-33(39)40)31(37-26)16-32-24(10-12-34(41)42)20(6)28(38-32)15-30-22(8-2)18(4)27(36-30)14-29(21)35-25/h7-8,13-16,36-37H,1-2,9-12H2,3-6H3,(H,39,40)(H,41,42)/b25-13-,26-13-,27-14-,28-15-,29-14-,30-15-,31-16-,32-16-

>  <InChIKey>
FEDYMSUPMFCVOD-UJJXFSCMSA-N

>  <SMILES>
Cc1c2/cc/3\nc(/cc\4/c(c(/c(/[nH]4)c/c5n/c(c\c(c1CCC(=O)O)[nH]2)/C(=C5C)CCC(=O)O)C=C)C)C(=C3C)C=C

$$$$
